/*--------------------------------*- C++ -*----------------------------------*\
| =========                 |                                                 |
| \\      /  F ield         | OpenFOAM: The Open Source CFD Toolbox           |
|  \\    /   O peration     | Version:  v2212                                 |
|   \\  /    A nd           | Website:  www.openfoam.com                      |
|    \\/     M anipulation  |                                                 |
\*---------------------------------------------------------------------------*/
FoamFile
{
    version     2.0;
    format      ascii;
    class       dictionary;
    object      fvSolution;
}
// * * * * * * * * * * * * * * * * * * * * * * * * * * * * * * * * * * * * * //

solvers
{
    "rho.*"
    {
        solver          PCG;
        preconditioner  DIC;
        tolerance       0;
        relTol          0;
    }

    p_rgh
    {
        solver          PCG;
        preconditioner  DIC;
        tolerance       1e-7;
        relTol          0.05;
    }

    p_rghFinal
    {
        $p_rgh;
        relTol          0;
    }

    "(U|h|e|k|epsilon|R)"
    {
        solver          PBiCGStab;
        preconditioner  DILU;
        tolerance       1e-6;
        relTol          0.1;
    }

    "(U|h|e|k|epsilon|R)Final"
    {
        $U;
        relTol          0;
    }
}

SIMPLE
{
    nNonOrthogonalCorrectors 0;
    pRefCell        0;
    pRefValue       0;
    residualControl
    {
        p_rgh           1e-2;
        U               1e-3;
        h               1e-3;
        G               1e-3;

        // possibly check turbulence fields
        "(k|epsilon|omega)" 1e-3;
        "ILambda.*"     1e-3;
    }
}

relaxationFactors
{
    fields
    {
        rho             1.0;
        p_rgh           0.7;
    }
    equations
    {
        U               0.2;
        h               0.2;
        k               0.5;
        epsilon         0.5;
        "ILambda.*"     0.7;
    }
}


// ************************************************************************* //
