/*--------------------------------*- C++ -*----------------------------------*\
| =========                 |                                                 |
| \\      /  F ield         | OpenFOAM: The Open Source CFD Toolbox           |
|  \\    /   O peration     | Version:  2212                                  |
|   \\  /    A nd           | Website:  www.openfoam.com                      |
|    \\/     M anipulation  |                                                 |
\*---------------------------------------------------------------------------*/
FoamFile
{
    version     2.0;
    format      ascii;
    arch        "LSB;label=32;scalar=64";
    class       polyBoundaryMesh;
    location    "constant/air/polyMesh";
    object      boundary;
}
// * * * * * * * * * * * * * * * * * * * * * * * * * * * * * * * * * * * * * //

7
(
    maxY
    {
        type            patch;
        nFaces          4720;
        startFace       1114400;
    }
    minX
    {
        type            patch;
        nFaces          4720;
        startFace       1119120;
    }
    maxX
    {
        type            patch;
        nFaces          4720;
        startFace       1123840;
    }
    minY
    {
        type            patch;
        nFaces          4720;
        startFace       1128560;
    }
    maxZ
    {
        type            patch;
        nFaces          6400;
        startFace       1133280;
    }
    air_to_floor
    {
        type            mappedWall;
        inGroups        1(wall);
        nFaces          6300;
        startFace       1139680;
        sampleMode      nearestPatchFace;
        sampleRegion    floor;
        samplePatch     floor_to_air;
    }
    air_to_solid
    {
        type            mappedWall;
        inGroups        1(wall);
        nFaces          420;
        startFace       1145980;
        sampleMode      nearestPatchFace;
        sampleRegion    solid;
        samplePatch     solid_to_air;
    }
)

// ************************************************************************* //
